%chk=104.chk
%cpu=0-15
# opt freq wb97xd def2tzvp

Title Card Required

-1 2
 C                 -4.17698300    0.21263400   -0.18425100
 C                 -2.95445700    0.56386400    0.37901400
 C                 -1.76001100    0.45778800   -0.34327600
 C                 -1.77383700   -0.01120700   -1.65640600
 C                 -2.98615300   -0.35955500   -2.20992900
 C                 -4.17703900   -0.24842600   -1.48424300
 H                 -5.09689500    0.29438800    0.37978200
 H                 -0.84187400   -0.12316500   -2.19422000
 H                 -3.01356900   -0.73941100   -3.22273600
 H                 -5.11336800   -0.53514200   -1.94648000
 N                 -0.63681700    0.85641200    0.36742700
 S                 -2.60965300    1.16737400    1.96457800
 C                 -0.94082500    1.24050300    1.55804500
 H                 -0.18288900    1.59343600    2.24649000
 Cu                 1.39962900    0.84557800   -0.34163800
 Cl                 2.15041900    2.06398100    1.37168000
 Cl                 2.47942200    1.67648100   -2.08394700
 O                  1.06509200   -0.94116100   -1.12315000
 C                  0.75353600   -2.09454900   -0.69081100
 O                  0.18779000   -3.01213700   -1.28859900
 C                  1.11318500   -2.36545300    0.80973200
 F                  0.10184200   -1.95323100    1.60779800
 F                  2.21364800   -1.71963900    1.21421400
 F                  1.30192000   -3.66266100    1.06406500
 
 